data_image0
_chemical_formula_structural       RbYO2
_chemical_formula_sum              "Rb1 Y1 O2"
_cell_length_a       7.445624351501465
_cell_length_b       7.640327986802341
_cell_length_c       6.408972693510158
_cell_angle_alpha    27.079182546923512
_cell_angle_beta     29.410545162290674
_cell_angle_gamma    23.241508943438063

_space_group_name_H-M_alt    "P 1"
_space_group_IT_number       1

loop_
  _space_group_symop_operation_xyz
  'x, y, z'

loop_
  _atom_site_type_symbol
  _atom_site_label
  _atom_site_symmetry_multiplicity
  _atom_site_fract_x
  _atom_site_fract_y
  _atom_site_fract_z
  _atom_site_occupancy
  Rb  Rb1       1.0  0.13341934978961945  0.036016184836626025  0.9343914240598679  1.0000
  Y   Y1        1.0  0.7632841467857361  0.895537666976452  0.02676716260612011  1.0000
  O   O1        1.0  0.9846047759056088  0.9615495018661023  0.9819652419537306  1.0000
  O   O2        1.0  0.6599666476249695  0.009180583991110323  0.9766051210463047  1.0000
